*Heading
** Job name: test_job Model name: Model-1
** Generated by: Abaqus/CAE 2024
*Preprint, echo=NO, model=NO, history=NO, contact=NO
**
** PARTS
**
*Part, name=Part-Core
*End Part
**  
*Part, name=Part-InnerSkin
*End Part
**  
*Part, name=Part-OuterSkin
*End Part
**  
**
** ASSEMBLY
**
*Assembly, name=Assembly
**  
*Instance, name=Part-InnerSkin-1, part=Part-InnerSkin
*Node
      1,        1300.,        5000.,   2251.66602
      2,        1300.,           0.,   2251.66602
      3,        2600.,           0.,           0.
      4,        2600.,        5000.,           0.
      5,           0.,       10400.,           0.
      6,        1300.,        4000.,   2251.66602
      7,        1300.,        3000.,   2251.66602
      8,        1300.,        2000.,   2251.66602
      9,        1300.,        1000.,   2251.66602
     10,   1991.71558,           0.,    1671.2478
     11,   2443.20093,           0.,    889.25238
     12,        2600.,        1000.,           0.
     13,        2600.,        2000.,           0.
     14,        2600.,        3000.,           0.
     15,        2600.,        4000.,           0.
     16,   2443.20093,        5000.,    889.25238
     17,   1991.71558,        5000.,    1671.2478
     18,   66.1721954,   10125.1309,   114.613602
     19,   136.721985,   9832.07812,   236.809433
     20,    211.93898,    9519.6377,   367.089081
** ... 49 like lines cut
*Element, type=S4R
 1,  1,  6, 42, 17
 2,  6,  7, 43, 42
 3,  7,  8, 44, 43
 4,  8,  9, 45, 44
 5,  9,  2, 10, 45
 6, 17, 42, 46, 16
 7, 42, 43, 47, 46
 8, 43, 44, 48, 47
 9, 44, 45, 49, 48
10, 45, 10, 11, 49
11, 16, 46, 15,  4
12, 46, 47, 14, 15
13, 47, 48, 13, 14
14, 48, 49, 12, 13
15, 49, 11,  3, 12
19, 16, 67, 50, 17
20, 64, 32, 33, 58
21, 63, 31, 32, 64
22, 64, 58, 69, 62
23, 53, 51, 27, 28
** ... 27 like lines cut
*Element, type=S3
16, 63, 64, 62
17, 18, 41,  5
18, 60, 22, 56
*Nset, nset=Set-All, generate
  1,  69,   1
*Elset, elset=Set-All, generate
  1,  50,   1
** Section: Section-CFRP-Skin
*Shell Section, elset=Set-All, composite
0.125, 3, CFRP_T1000G, 45.
0.125, 3, CFRP_T1000G, 0.
0.125, 3, CFRP_T1000G, -45.
0.125, 3, CFRP_T1000G, 90.
0.125, 3, CFRP_T1000G, 90.
0.125, 3, CFRP_T1000G, -45.
0.125, 3, CFRP_T1000G, 0.
0.125, 3, CFRP_T1000G, 45.
*End Instance
**  
*Instance, name=Part-Core-1, part=Part-Core
*End Instance
**  
*Instance, name=Part-OuterSkin-1, part=Part-OuterSkin
*Node
      1,        1319.,        5000.,   2284.57495
      2,        1319.,           0.,   2284.57495
      3,        2638.,           0.,           0.
      4,        2638.,        5000.,           0.
      5,           0.,   10448.5254,           0.
      6,        1319.,        4000.,   2284.57495
      7,        1319.,        3000.,   2284.57495
      8,        1319.,        2000.,   2284.57495
      9,        1319.,        1000.,   2284.57495
     10,    2020.8252,           0.,   1695.67371
     11,   2478.90918,           0.,   902.249146
     12,        2638.,        1000.,           0.
     13,        2638.,        2000.,           0.
     14,        2638.,        3000.,           0.
     15,        2638.,        4000.,           0.
     16,   2478.90918,        5000.,   902.249146
     17,    2020.8252,        5000.,   1695.67371
     18,   383.636169,   9742.08594,   664.477295
     19,   710.057739,   8928.72266,   1229.85608
     20,   971.904724,   8026.77539,   1683.38831
** ... 23 like lines cut
*Element, type=S4R
 1,  1,  6, 28, 17
 2,  6,  7, 29, 28
 3,  7,  8, 30, 29
 4,  8,  9, 31, 30
 5,  9,  2, 10, 31
 6, 17, 28, 32, 16
 7, 28, 29, 33, 32
 8, 29, 30, 34, 33
 9, 30, 31, 35, 34
10, 31, 10, 11, 35
11, 16, 32, 15,  4
12, 32, 33, 14, 15
13, 33, 34, 13, 14
14, 34, 35, 12, 13
15, 35, 11,  3, 12
17, 27,  5, 18, 42
18, 43, 42, 18, 19
19, 39, 38, 25, 26
20, 41, 24, 25, 38
21, 40, 23, 24, 41
** ... 9 like lines cut
*Element, type=S3
16, 38, 37, 41
*Nset, nset=Set-All, generate
  1,  43,   1
*Elset, elset=Set-All, generate
  1,  30,   1
** Section: Section-CFRP-Skin
*Shell Section, elset=Set-All, composite
0.125, 3, CFRP_T1000G, 45.
0.125, 3, CFRP_T1000G, 0.
0.125, 3, CFRP_T1000G, -45.
0.125, 3, CFRP_T1000G, 90.
0.125, 3, CFRP_T1000G, 90.
0.125, 3, CFRP_T1000G, -45.
0.125, 3, CFRP_T1000G, 0.
0.125, 3, CFRP_T1000G, 45.
*End Instance
**  
*Elset, elset=_Surf_Inner_SPOS, internal, instance=Part-InnerSkin-1, generate
  1,  50,   1
*Surface, type=ELEMENT, name=Surf_Inner
_Surf_Inner_SPOS, SPOS
*Elset, elset=_Surf_Outer_SPOS, internal, instance=Part-OuterSkin-1, generate
  1,  30,   1
*Surface, type=ELEMENT, name=Surf_Outer
_Surf_Outer_SPOS, SPOS
*End Assembly
** 
** MATERIALS
** 
*Material, name=AL_HONEYCOMB
*Density
 5e-11,
*Elastic, type=ENGINEERING CONSTANTS
1.,   1.,1000., 0.01, 0.01, 0.01,   1., 400.
 240.,
*Expansion
 2.3e-05,
*Material, name=CFRP_T1000G
*Density
 1.6e-09,
*Elastic, type=LAMINA
160000.,10000.,   0.3, 5000., 5000., 3000.
*Expansion
 2e-06, 2e-06,    0.
** ----------------------------------------------------------------
** 
** STEP: Step-1
** 
*Step, name=Step-1, nlgeom=NO
*Static
1., 1., 1e-05, 1.
** 
** OUTPUT REQUESTS
** 
*Restart, write, frequency=0
** 
** FIELD OUTPUT: F-Output-1
** 
*Output, field
*Node Output
RF, U
*Element Output, directions=YES
S, TEMP
** 
** HISTORY OUTPUT: H-Output-1
** 
*Output, history, variable=PRESELECT
*End Step
